ra-optimisation/rao-optimization-commons/src/test/resources/network/4Nodes.uct
##C 2007.05.01
##N
##ZFR
FFR1AA1  FR1          0 2 400.00 123.000 0.00000 00000.00 0.00000 9000.00 -9000.0 9000.00 -9000.0
FFR2AA1  FR2          0 2 400.00 5.00000 0.00000 -2000.00 0.00000 9000.00 -9000.0 9000.00 -9000.0
FFR3AA1  FR3          0 2 400.00 2000.00 0.00000 0.000000 0.00000 9000.00 -9000.0 9000.00 -9000.0
FFR4AA1  FR3          0 2 400.00 1200.00 0.00000 0.000000 0.00000 9000.00 -9000.0 9000.00 -9000.0
##L
FFR1AA1  FFR2AA1  1 0 0.0000 10.000 0.000000   5000
FFR1AA1  FFR3AA1  1 0 0.0000 10.000 0.000000   5000
FFR2AA1  FFR3AA1  1 0 0.0000 10.000 0.000000   5000